 1000.00     295.00      10.00
   25.00     290.00      10.00       3.40       0.00
   75.00     290.00      10.00       3.40       0.00
  125.00     290.00      10.00       3.40       0.00
  175.00     290.00      10.00       3.40       0.00
  225.00     290.00      10.00       3.40       0.00
  275.00     290.00      10.00       3.40       0.00
  325.00     290.00      10.00       3.40       0.00
  375.00     290.00      10.00       3.40       0.00
  425.00     290.00      10.00       3.40       0.00
  475.00     290.00      10.00       3.40       0.00
  525.00     290.00      10.00       3.40       0.00
  575.00     290.00      10.00       3.40       0.00
  625.00     290.00      10.00       3.40       0.00
  675.00     290.00      10.00       3.40       0.00
  725.00     290.00      10.00       3.40       0.00
  775.00     290.00      10.00       3.40       0.00
  825.00     290.00      10.00       3.40       0.00
  875.00     290.00      10.00       3.40       0.00
  925.00     290.00      10.00       3.40       0.00
  975.00     292.43      10.00       3.40       0.00
 1025.00     295.63      10.00       3.40       0.00
 1075.00     298.05      10.00       3.40       0.00
 1125.00     298.20      10.00       3.40       0.00
 1175.00     298.35      10.00       3.40       0.00
 1225.00     298.50       4.00       3.40       0.00
 1275.00     298.65       4.00       3.40       0.00
 1325.00     298.80       4.00       3.40       0.00
 1375.00     299.95       4.00       3.40       0.00
 1425.00     299.10       4.00       3.40       0.00
 1475.00     299.25       4.00       3.40       0.00
 1525.00     299.40       4.00       3.40       0.00
 1575.00     299.55       4.00       3.40       0.00
 1625.00     299.70       4.00       3.40       0.00
 1675.00     299.85       4.00       3.40       0.00
 1725.00     300.00       4.00       3.40       0.00
 1775.00     300.15       4.00       3.40       0.00
 1825.00     300.30       4.00       3.40       0.00
 1875.00     300.45       4.00       3.40       0.00
 1925.00     300.60       4.00       3.40       0.00
 1975.00     300.75       4.00       3.40       0.00
 2025.00     301.90       4.00       3.40       0.00
 3000.00     301.25       4.00       3.40       0.00
 4000.00     307.50       4.00       3.40       0.00
 5000.00     313.75       4.00       3.40       0.00
 6000.00     320.00       4.00       3.40       0.00
 7000.00     326.25       4.00       3.40       0.00
 8000.00     332.50       4.00       3.40       0.00
 9000.00     338.75       4.00       3.40       0.00
10000.00     345.00       4.00       3.40       0.00
