 &time_control
 run_days                            = 0,
 run_hours                           = 1,
 run_minutes                         = 0,
 run_seconds                         = 0,
 start_year                          = 0001, 0001, 0001,
 start_month                         = 01,   01,   01,
 start_day                           = 01,   01,   01,
 start_hour                          = 06,   06,   00,
 start_minute                        = 00,   00,   00,
 start_second                        = 00,   00,   00,
 end_year                            = 0001, 0001, 0001,
 end_month                           = 01,   01,   01,
 end_day                             = 01,   01,   01,
 end_hour                            = 07,   07,   00,
 end_minute                          = 00,   00,   00,
 end_second                          = 00,   00,   00,
 history_interval_m                  = 00,   00, 
 history_interval_s                  = 30,   30,  120,
 frames_per_outfile                  = 1000,    1000,    1,
 auxhist2_outname                    = "lpdm_d<domain>_<date>",
 auxhist2_interval_m                 = 00,   00,   00,
 auxhist2_interval_s                 = 10,   10,   10,
 auxinput7_inname                    = "surface_d<domain>",
 auxinput7_interval_m                = 600,  600,  600,
 input_surface                       = .false.,.true.,.false.,
 restart                             = .true.,
 restart_interval_m                  = 10,
 restart_interval_s                  = 00,
 iofields_filename                   = "surface_in","surface_in","surface_in",
 ignore_iofields_warning             = .FALSE.
 io_form_history                     = 2
 io_form_restart                     = 102
 io_form_input                       = 2
 io_form_boundary                    = 2
 io_form_auxhist2                    = 2
 io_form_auxinput7                   = 2
 debug_level                         = 0 
 /

 &domains
 time_step                           = 0,
 time_step_fract_num                 = 1,
 time_step_fract_den                 = 8,
 max_dom                             = 2,
 s_we                                = 1,     1,     1,
 e_we                                = 300,    451,    43,
 s_sn                                = 1,     1,     1,
 e_sn                                = 300,    451,    43,
 s_vert                              = 1,     1,     1,
 e_vert                              = 73,    73,    41,
 dx                                  = 90,   30,    10,
 dy                                  = 90,   30,    10,
! eta_levels                          = 1.000,0.997,0.995,0.992,0.990,0.987,0.984,0.982,0.979,0.977,0.974,0.971,0.969,0.966,0.964,0.961,0.959,0.956,0.954,0.951,0.948,0.946,0.943,0.941,0.938,0.936,0.933,0.931,0.929,0.926,0.924,0.921,0.919,0.916,0.914,0.911,0.909,0.907,0.904,0.902,0.899,0.897,0.894,0.891,0.888,0.884,0.879,0.873,0.865,0.857,0.846,0.833,0.818,0.800,0.779,0.754,0.725,0.690,0.650,0.605,0.553,0.495,0.432,0.367,0.302,0.241,0.189,0.144,0.105,0.072,0.044,0.020,0.000


 eta_levels                          = 1.000000000000000, 
                                       0.998508104197351, 0.996925394125426, 0.995243951206412, 0.993457754922932, 0.991560435895111, 0.989545258100294, 0.987405100523324, 0.985132438271090,
                                       0.982719323195605, 0.980157364082011, 0.977437706471938, 0.974551012208590, 0.971487438808267, 0.968236618783778, 0.964787639068830, 0.961129020719153,
                                       0.957248699096215, 0.953134004773270, 0.948771645441416, 0.944147689135808, 0.939247549149480, 0.934055971054791, 0.928557022310711, 0.922734084998379,
                                       0.916569852297947, 0.910046329396935, 0.903144839604523, 0.895846036537385, 0.888129923341037, 0.879975880015997, 0.871362700030039, 0.862268637515973,
                                       0.852671466477644, 0.842548553554091, 0.831876946021130, 0.820633476838704, 0.808794888678084, 0.796337978981484, 0.783239768212893, 0.769477693546955,
                                       0.755029830304960, 0.739875143474624, 0.723993771632570, 0.707367345512618, 0.689979343314522, 0.671815484609511, 0.652864164351548, 0.633116928024758,
                                       0.612568988323634, 0.591219782947057, 0.569073572061315, 0.546140072721662, 0.522435126006340, 0.497981390782009, 0.472809055857948, 0.446956559775163,
                                       0.420471304598278, 0.393410346824067, 0.365841044891482, 0.337841638785613, 0.309501732893113, 0.280922648613755, 0.252217608278586, 0.223511706654224,
                                       0.194941620637448, 0.166655001434949, 0.138809486098476, 0.111571255837581, 0.085113055457951, 0.059611568867944, 0.035244015442395, 0.000000000000000,
 !eta_levels                          = 1.000, 0.979, 0.958, 0.937, 0.917, 0.896,
 !                                      0.876, 0.855, 0.835, 0.815, 0.794, 0.774,
  !                                     0.754, 0.734, 0.713, 0.693, 0.672, 0.650,
  !                                     0.627, 0.604, 0.581, 0.557, 0.532, 0.507,
  !                                     0.480, 0.454, 0.426, 0.398, 0.369, 0.340,
  !                                    0.309, 0.278, 0.246, 0.213, 0.180, 0.146,
   !                                    0.110, 0.074, 0.037, 0.000
 ztop                                = 2000, 2000, 1500,
 grid_id                             = 1,     2,     3,
 parent_id                           = 0,     1,     2,
 i_parent_start                      = 0,     10,    1,
 j_parent_start                      = 0,     10,    1,
 parent_grid_ratio                   = 1,     3,     3,
 parent_time_step_ratio              = 1,     3,     3,
 feedback                            = 0,
 smooth_option                       = 0
 sr_x                                = 4,     0,     0
 sr_y                                = 4,     0,     0
 /

 &physics
 mp_physics                          = 8,     8,     0,
 ra_lw_physics                       = 0,     0,     0,
 ra_sw_physics                       = 0,     0,     0,
 radt                                = 12,    12,    12,
 sf_sfclay_physics                   = 0,     0,     0,
 sf_surface_physics                  = 0,     0,     0,
 bl_pbl_physics                      = 0,     0,     0,
 bldt                                = 0,     0,     0,
 cu_physics                          = 0,     0,     0,
 cudt                                = 0,     0,     0,
 isfflx                              = 2,
! tke_heat_flux                       = 0.05,  0.05, 
 ifsnow                              = 0,
 icloud                              = 0,
 num_soil_layers                     = 5,
 mp_zero_out                         = 0,
 /

 &fdda
 /

 &dynamics
 isfctemp                            = .false.,.false.,.false.,
 tracer_opt                          = 0,     0,     0,
 lpdm_opt                            = 1,     1,     1,
 m_opt                               = 1,     1,     1,
 rk_ord                              = 3,
 diff_opt                            = 2,      2,      2,
 km_opt                              = 2,      2,      2,
 damp_opt                            = 0,
 zdamp                               = 15000.,  5000.,  5000.,
 dampcoef                            = 0.2,    0.2,    0.2
 khdif                               = 1.,     1.,   0.05,
 kvdif                               = 1.,   1.,   0.05,
 c_s                                 = 0.18,    0.18,  0.18
 c_k                                 = 0.10,    0.10,  0.10
 mix_isotropic                       = 1,	1,     1,
 smdiv                               = 0.1,    0.1,    0.1,
 emdiv                               = 0.01,   0.01,   0.01,
 epssm                               = 0.3,    0.3,    0.1
 mix_full_fields                     = .true., .true., .true.,
 non_hydrostatic                     = .true., .true., .true.,
 pert_coriolis                       = .true., .true., .true.,
 tke_heat_flux                       = 0.05, 0.05,
 h_mom_adv_order                     = 5,      5,      5,
 v_mom_adv_order                     = 3,      3,      3,
 h_sca_adv_order                     = 5,      5,      5,
 v_sca_adv_order                     = 3,      3,      3,
 time_step_sound                     = 6,     6,     20,
 moist_adv_opt                       = 1,      1,      1,
 scalar_adv_opt                      = 1,      1,      1,
 /

 &bdy_control
 periodic_x                          = .true.,.false.,.false.,
 symmetric_xs                        = .false.,.false.,.false.,
 symmetric_xe                        = .false.,.false.,.false.,
 open_xs                             = .false., .false.,.false.,
 open_xe                             = .false., .false.,.false.,
 periodic_y                          = .true.,.false.,.false.,
 symmetric_ys                        = .false.,.false.,.false.,
 symmetric_ye                        = .false.,.false.,.false.,
 open_ys                             = .false., .false.,.false.,
 open_ye                             = .false., .false.,.false.,
 nested                              = .false., .true., .true.,
 /

 &grib2
 /

 &namelist_quilt
 nio_tasks_per_group = 0,
 nio_groups = 1,
 /

 &fire ! be sure to set sr_x,sr_y in domains-namelist (to set refinement in x,y)
 ifire              = 2,    ! integer, = 0: no fire, 2=turn on fire model
 fire_fuel_read     = 0,    ! integer, -1: from WPS, 0= use fire_fuel_cat, 1= by altitude
 fire_fuel_cat      = 1,    ! integer, if specified which fuel category?
! ignition 
 fire_num_ignitions = 1,            ! integer, only the first fire_num_ignition used, up to 5 allowed
 fire_ignition_ros1 =   0.05,        ! rate of spread during ignition, m/s  
 fire_ignition_start_x1 = 2000.,     ! start points of ignition lines, in m from lower left corner
 fire_ignition_start_y1 = 2000.,     ! start points of ignition lines, in m from lower left corner
 fire_ignition_end_x1 =   2000.,     ! end points of ignition lines, in m from lower left corner
 fire_ignition_end_y1 =   3000.,     ! end points of ignition lines, in m from lower left corner
 fire_ignition_radius1 =    80.,     ! all within this radius will ignite, > fire mesh step
 fire_ignition_start_time1 = 12000.,    ! sec for ignition from the start
 fire_ignition_end_time1  =145.,     ! sec for ignition from the start
 fire_ignition_ros2 =   0.05,        ! rate of spread during ignition, m/s  
 fire_ignition_start_x2 = 2000.,     ! start points of ignition lines, in m from lower left corner
 fire_ignition_start_y2 =  500.,     ! start points of ignition lines, in m from lower left corner
 fire_ignition_end_x2 =   2000.,     ! end points of ignition lines, in m from lower left corner
 fire_ignition_end_y2 =   1900.,     ! end points of ignition lines, in m from lower left corner
 fire_ignition_radius2 =    18.,     ! all within this radius will ignite, > fire mesh step
 fire_ignition_start_time2 = 3.,     ! sec for ignition from the start      ! end ignition for sfire
 fire_ignition_end_time2  =503.,     ! sec for ignition from the start! end ignition for sfire
 fire_wind_height = 1.,             ! height to interpolate winds to for calculating fire spread rate 
!
! verbosity
 fire_print_msg     = 1,        ! 1 print fire debugging messages
 fire_print_file    = 0,        ! 1 write files for matlab
!
! experiments
!
! fire_const_time = -1.,         ! (s) if >0, time from start to stop fire evolution and keep heat output constant
! fire_const_grnhfx = -1,        ! (W/s) if both >=0, use this flux (meant to be used when fire_const_time=ignition time) 
! fire_const_grnqfx = -1,        ! (W/s) if both >=0, use this flux (meant to be used when fire_const_time=ignition time) 
! fire_test_steps=0,             ! >0 = on first call, do specified number of steps and terminate (testing only)
 fire_mountain_type=0,          ! in ideal: 0=none, 1= hill, 2=EW ridge, 3=NS ridge
 fire_mountain_height=100.,     ! (m) ideal mountain height
 fire_mountain_start_x=1750.,   ! (m) coord of start of the mountain from lower left corner (just like ignition)
 fire_mountain_start_y=1750.,   ! (m) coord of start of the mountain from lower left corner (just like ignition)
 fire_mountain_end_x=3250.,     ! (m) coord of end of the mountain from lower left corner (just like ignition)
 fire_mountain_end_y=3250.,     ! (m) coord of end of the mountain from lower left corner (just like ignition)
 fire_topo_from_atm=1,          ! 0 = fire mesh topo set from fine-res data, 1 = populate by interpolating from atmosphere
  delt_perturbation = 0.0,       ! Temperature perturbation for creating cold (negative) / warm (positive) bubble [K], 0 turns it off
 !xrad_perturbation = 10000.0,   ! Horizontal radius of the bubble in E-W direction [m]
 !yrad_perturbation = 10000.0,   ! Horizontal radius of the bubble in N-S direction [m]
 !zrad_perturbation = 1500.0,    ! Vertical radius of the bubble [m]
 !hght_perturbation = 1500.0,    ! Perturbation height - height at which the warm/cold bubble will be suspended [m]
!
! method switches for developers only, do not change!
!
 fire_boundary_guard = -1,      ! integer, number of cells to stop when fire close to the domain boundary, -1 turn off
 fire_fuel_left_irl=2,          ! refinement to integrate fuel_left, must be even
 fire_fuel_left_jrl=2,          ! refinement to integrate fuel_left, must be even
 fire_atm_feedback=1.0,         ! real, multiplier for heat fluxes, 1.=normal, 0.=turn off two-way coupling 
 fire_back_weight=0.5,          ! RK timestepping coefficient, 0=forward, 0.5=Heun
 fire_grows_only=1,             ! if >0 level set function cannot increase = fire can only grow
 fire_viscosity=0.4,              ! artificial viscosity in level set method (max 1, needed with fire_upwinding=0)
 fire_upwinding=3,              ! 0=none, 1=standard, 2=godunov, 3=eno, 4=sethian
 fire_fuel_left_method=1,        ! for now, use 1 only
 fire_lfn_ext_up=1.0,           ! 0.=extend level set function at boundary by reflection, 1.=always up
 fire_advection=0,              ! 0 = cawfe, 1 = use abs speed/slope in spread rate, then project on normal to fireline
/
